data/9500/IEEE_9500.glm
// This is the base IEEE 9500 Node Test System formateed for the RD2C Iniaitive

clock {
  timezone EST+5EDT;
  starttime '2000-01-01 0:00:00';
  stoptime '2000-01-01 0:00:00';
};

#set relax_naming_rules=1
#set profiler=1

module tape;

module powerflow {
  solver_method NR;
  lu_solver "KLU";
  line_capacitance true;
//  maximum_voltage_error 1e-6;
//  default_maximum_voltage_error 1e-6;
};

module generators;

module reliability {
  report_event_log false;
};

#define VSOURCE=69715.045

#include "Rotating_Machines.glm";
#include "Inverters.glm";
#include "Recorders.glm";


//Fault check option, this is included becasue there are multiple PQ nodes on the system to support the various scenarios. 
// If this object is removed, all PQ nodes will be convereted to SWING nodes, which will provide a different solution.
object fault_check {
	name base_fault_check_object;
	check_mode ONCHANGE;
	strictly_radial false;
	grid_association true;
	output_filename testtopo.txt;
}


//Phase Conductors

object overhead_line_conductor {
  name "wire_1/0_3w_cs";
  geometric_mean_radius 0.011417;
  diameter 0.39800;
  resistance 0.971519;
  rating.summer.continuous 200.00;
  rating.summer.emergency 200.00;
  rating.winter.continuous 200.00;
  rating.winter.emergency 200.00;
}
object overhead_line_conductor {
  name "wire_1/0_acsr";
  geometric_mean_radius 0.004458;
  diameter 0.39800;
  resistance 1.040999;
  rating.summer.continuous 260.00;
  rating.summer.emergency 260.00;
  rating.winter.continuous 260.00;
  rating.winter.emergency 260.00;
}
object overhead_line_conductor {
  name "wire_4_wpal";
  geometric_mean_radius 0.00700;
  diameter 0.25000;
  resistance 2.459419;
  rating.summer.continuous 150.00;
  rating.summer.emergency 150.00;
  rating.winter.continuous 150.00;
  rating.winter.emergency 150.00;
}
object overhead_line_conductor {
  name "wire_4_acsr";
  geometric_mean_radius 0.004367;
  diameter 0.25000;
  resistance 2.530689;
  rating.summer.continuous 150.00;
  rating.summer.emergency 150.00;
  rating.winter.continuous 150.00;
  rating.winter.emergency 150.00;
}
object overhead_line_conductor {
  name "wire_4_dpx";
  geometric_mean_radius 0.00700;
  diameter 0.25000;
  resistance 2.449900;
  rating.summer.continuous 136.00;
  rating.summer.emergency 136.00;
  rating.winter.continuous 136.00;
  rating.winter.emergency 136.00;
}
object overhead_line_conductor {
  name "wire_2/0_wpal";
  geometric_mean_radius 0.005100;
  diameter 0.44700;
  resistance 0.853001;
  rating.summer.continuous 300.00;
  rating.summer.emergency 300.00;
  rating.winter.continuous 300.00;
  rating.winter.emergency 300.00;
}
object overhead_line_conductor {
  name "wire_397_acsr";
  geometric_mean_radius 0.02400;
  diameter 0.74300;
  resistance 0.256999;
  rating.summer.continuous 630.00;
  rating.summer.emergency 630.00;
  rating.winter.continuous 630.00;
  rating.winter.emergency 630.00;
}
object overhead_line_conductor {
  name "wire_397_aac_treewire";
  geometric_mean_radius 0.02400;
  diameter 0.74300;
  resistance 0.283008;
  rating.summer.continuous 526.00;
  rating.summer.emergency 526.00;
  rating.winter.continuous 526.00;
  rating.winter.emergency 526.00;
}
object overhead_line_conductor {
  name "wire_2_acsr";
  geometric_mean_radius 0.004183;
  diameter 0.31600;
  resistance 1.625700;
  rating.summer.continuous 200.00;
  rating.summer.emergency 200.00;
  rating.winter.continuous 200.00;
  rating.winter.emergency 200.00;
}
object overhead_line_conductor {
  name "wire_2_wpal";
  geometric_mean_radius 0.004183;
  diameter 0.31600;
  resistance 1.690130;
  rating.summer.continuous 155.00;
  rating.summer.emergency 155.00;
  rating.winter.continuous 155.00;
  rating.winter.emergency 155.00;
}
object overhead_line_conductor {
  name "wire_6_wpal";
  geometric_mean_radius 0.003942;
  diameter 0.19800;
  resistance 3.910899;
  rating.summer.continuous 115.00;
  rating.summer.emergency 115.00;
  rating.winter.continuous 115.00;
  rating.winter.emergency 115.00;
}
object overhead_line_conductor {
  name "wire_4_tpx";
  geometric_mean_radius 0.00700;
  diameter 0.25000;
  resistance 2.449900;
  rating.summer.continuous 115.00;
  rating.summer.emergency 115.00;
  rating.winter.continuous 115.00;
  rating.winter.emergency 115.00;
}
object overhead_line_conductor {
  name "wire_1/0_tpx";
  geometric_mean_radius 0.011417;
  diameter 0.39800;
  resistance 0.18400;
  rating.summer.continuous 205.00;
  rating.summer.emergency 205.00;
  rating.winter.continuous 205.00;
  rating.winter.emergency 205.00;
}
object overhead_line_conductor {
  name "wire_4/0_tpx";
  geometric_mean_radius 0.015767;
  diameter 0.56300;
  resistance 0.485760;
  rating.summer.continuous 318.00;
  rating.summer.emergency 318.00;
  rating.winter.continuous 318.00;
  rating.winter.emergency 318.00;
}
object overhead_line_conductor {
  name "wire_2/0_acsr";
  geometric_mean_radius 0.005100;
  diameter 0.44700;
  resistance 0.853001;
  rating.summer.continuous 300.00;
  rating.summer.emergency 300.00;
  rating.winter.continuous 300.00;
  rating.winter.emergency 300.00;
}
object underground_line_conductor {
  name "cncab_1/0_al_15kv_1/3";
  neutral_gmr 0.000819;
  neutral_diameter 0.025197;
  neutral_resistance 4.103827;
  neutral_strands 6;
  conductor_gmr 0.011089;
  conductor_diameter 0.368110;
  conductor_resistance 0.970434;
  outer_diameter 1.078740;
  insulation_relative_permitivitty 2.30;
}

// Overhead line configurations

object line_spacing {
  name "spc_3ph_h-4_acsr2_acsr2_acsr4_wpal_ABCN";
  distance_AB 3.2016;
  distance_AC 4.000;
  distance_AN 5.5902;
  distance_AE 32.000;
  distance_BC 2.500;
  distance_BN 7.000;
  distance_BE 34.000;
  distance_CN 5.2202;
  distance_CE 32.000;
  distance_NE 27.000;
}
object line_spacing {
  name "spc_1ph-4_acsrxx1/0_tpx_AN";
  distance_AN 7.5664;
  distance_AE 34.500;
  distance_NE 27.000;
}
object line_spacing {
  name "spc_1ph-x4_wpalx4_wpal_BN";
  distance_BN 7.5664;
  distance_BE 34.500;
  distance_NE 27.000;
}
object line_spacing {
  name "spc_1ph-x4_wpalx1/0_tpx_BN";
  distance_BN 7.5664;
  distance_BE 34.500;
  distance_NE 27.000;
}
object line_spacing {
  name "spc_3ph_h-4_wpal4_wpal4_wpal1/0_tpx_ABCN";
  distance_AB 3.2016;
  distance_AC 4.000;
  distance_AN 5.5902;
  distance_AE 32.000;
  distance_BC 2.500;
  distance_BN 7.000;
  distance_BE 34.000;
  distance_CN 5.2202;
  distance_CE 32.000;
  distance_NE 27.000;
}
object line_spacing {
  name "spc_3ph_h-4_acsr4_acsr4_acsr4_wpal_ABCN";
  distance_AB 3.2016;
  distance_AC 4.000;
  distance_AN 5.5902;
  distance_AE 32.000;
  distance_BC 2.500;
  distance_BN 7.000;
  distance_BE 34.000;
  distance_CN 5.2202;
  distance_CE 32.000;
  distance_NE 27.000;
}
object line_spacing {
  name "spc_3ph_h-2/0_acsr2/0_acsr2/0_acsr2_acsr_ABCN";
  distance_AB 3.2016;
  distance_AC 4.000;
  distance_AN 5.5902;
  distance_AE 32.000;
  distance_BC 2.500;
  distance_BN 7.000;
  distance_BE 34.000;
  distance_CN 5.2202;
  distance_CE 32.000;
  distance_NE 27.000;
}
object line_spacing {
  name "spc_1ph-x4_wpalx2_acsr_BN";
  distance_BN 7.5664;
  distance_BE 34.500;
  distance_NE 27.000;
}
object line_spacing {
  name "spc_1ph-xx6_wpal6_wpal_CN";
  distance_CN 7.5664;
  distance_CE 34.500;
  distance_NE 27.000;
}
object line_spacing {
  name "spc_1ph-x4_acsrx4_wpal_BN";
  distance_BN 7.5664;
  distance_BE 34.500;
  distance_NE 27.000;
}
object line_spacing {
  name "spc_1ph-xx4_wpal4_wpal_CN";
  distance_CN 7.5664;
  distance_CE 34.500;
  distance_NE 27.000;
}
object line_spacing {
  name "spc_1ph-2_acsrxx4_wpal_AN";
  distance_AN 7.5664;
  distance_AE 34.500;
  distance_NE 27.000;
}
object line_spacing {
  name "spc_1ph-x4_acsrx1/0_tpx_BN";
  distance_BN 7.5664;
  distance_BE 34.500;
  distance_NE 27.000;
}
object line_spacing {
  name "spc_1ph-x2_acsrx1/0_tpx_BN";
  distance_BN 7.5664;
  distance_BE 34.500;
  distance_NE 27.000;
}
object line_spacing {
  name "spc_1ph-x4_acsrx4_tpx_BN";
  distance_BN 7.5664;
  distance_BE 34.500;
  distance_NE 27.000;
}
object line_spacing {
  name "spc_3ph_h-2_acsr2_acsr4_acsr4_acsr_ABCN";
  distance_AB 3.2016;
  distance_AC 4.000;
  distance_AN 5.5902;
  distance_AE 32.000;
  distance_BC 2.500;
  distance_BN 7.000;
  distance_BE 34.000;
  distance_CN 5.2202;
  distance_CE 32.000;
  distance_NE 27.000;
}
object line_spacing {
  name "spc_3ph_h-397_acsr397_acsr397_acsr2/0_wpal_ABCN";
  distance_AB 3.2016;
  distance_AC 4.000;
  distance_AN 5.5902;
  distance_AE 32.000;
  distance_BC 2.500;
  distance_BN 7.000;
  distance_BE 34.000;
  distance_CN 5.2202;
  distance_CE 32.000;
  distance_NE 27.000;
}
object line_spacing {
  name "spc_1ph-x4_acsrx1/0_3w_cs_BN";
  distance_BN 7.5664;
  distance_BE 34.500;
  distance_NE 27.000;
}
object line_spacing {
  name "spc_1p_1/0_axnj_db_A";
  distance_AE -4.0026;
}
object line_spacing {
  name "spc_1p_1/0_axnj_db_B";
  distance_BE -4.0026;
}
object line_spacing {
  name "spc_1p_1/0_axnj_db_C";
  distance_CE -4.0026;
}
object line_spacing {
  name "spc_1ph-2_acsrxx4_acsr_AN";
  distance_AN 7.5664;
  distance_AE 34.500;
  distance_NE 27.000;
}
object line_spacing {
  name "spc_1ph-xx4_acsr1/0_acsr_CN";
  distance_CN 7.5664;
  distance_CE 34.500;
  distance_NE 27.000;
}
object line_spacing {
  name "spc_1ph-2_acsrxx2_acsr_AN";
  distance_AN 7.5664;
  distance_AE 34.500;
  distance_NE 27.000;
}
object line_spacing {
  name "spc_1ph-2_acsrxx2_acsr_CN";
  distance_CN 7.5664;
  distance_CE 34.500;
  distance_NE 27.000;
}
object line_spacing {
  name "spc_1ph-xx4_wpal4_acsr_CN";
  distance_CN 7.5664;
  distance_CE 34.500;
  distance_NE 27.000;
}
object line_spacing {
  name "spc_3p_1/0_axnj_db_ABC";
  distance_AB 0.500;
  distance_AC 1.000;
  distance_AE -4.0026;
  distance_BC 0.500;
  distance_BE -4.0026;
  distance_CE -4.0026;
}
object line_spacing {
  name "spc_1ph-4_acsrxx4_acsr_AN";
  distance_AN 7.5664;
  distance_AE 34.500;
  distance_NE 27.000;
}
object line_spacing {
  name "spc_1ph-4_acsrxx4_acsr_CN";
  distance_CN 7.5664;
  distance_CE 34.500;
  distance_NE 27.000;
}
object line_spacing {
  name "spc_1ph-2_acsrxx4/0_tpx_AN";
  distance_AN 7.5664;
  distance_AE 34.500;
  distance_NE 27.000;
}
object line_spacing {
  name "spc_1ph-x4_acsrx4_dpx_BN";
  distance_BN 7.5664;
  distance_BE 34.500;
  distance_NE 27.000;
}
object line_spacing {
  name "spc_1ph-xx4_acsr4_tpx_CN";
  distance_CN 7.5664;
  distance_CE 34.500;
  distance_NE 27.000;
}
object line_spacing {
  name "spc_1ph-4_acsrxx6_wpal_AN";
  distance_AN 7.5664;
  distance_AE 34.500;
  distance_NE 27.000;
}
object line_spacing {
  name "spc_1ph-x4_acsrx2_wpal_BN";
  distance_BN 7.5664;
  distance_BE 34.500;
  distance_NE 27.000;
}
object line_spacing {
  name "spc_1ph-x4_wpalx4_acsr_BN";
  distance_BN 7.5664;
  distance_BE 34.500;
  distance_NE 27.000;
}
object line_spacing {
  name "spc_1ph-xx4_acsr4_acsr_AN";
  distance_AN 7.5664;
  distance_AE 34.500;
  distance_NE 27.000;
}
object line_spacing {
  name "spc_1ph-xx4_acsr4_acsr_BN";
  distance_BN 7.5664;
  distance_BE 34.500;
  distance_NE 27.000;
}
object line_spacing {
  name "spc_1ph-xx4_acsr4_acsr_CN";
  distance_CN 7.5664;
  distance_CE 34.500;
  distance_NE 27.000;
}
object line_spacing {
  name "spc_1ph-xx4_wpal1/0_tpx_CN";
  distance_CN 7.5664;
  distance_CE 34.500;
  distance_NE 27.000;
}
object line_spacing {
  name "spc_2ph_h-2_acsrx2_acsr2_acsr_ACN";
  distance_AC 4.000;
  distance_AN 5.5902;
  distance_AE 32.000;
  distance_CN 5.2202;
  distance_CE 32.000;
  distance_NE 27.000;
}
object line_spacing {
  name "spc_3ph_h-4_wpal4_wpal4_wpal4_wpal_ABCN";
  distance_AB 3.2016;
  distance_AC 4.000;
  distance_AN 5.5902;
  distance_AE 32.000;
  distance_BC 2.500;
  distance_BN 7.000;
  distance_BE 34.000;
  distance_CN 5.2202;
  distance_CE 32.000;
  distance_NE 27.000;
}
object line_spacing {
  name "spc_1ph-2_acsrxx1/0_tpx_AN";
  distance_AN 7.5664;
  distance_AE 34.500;
  distance_NE 27.000;
}
object line_spacing {
  name "spc_1ph-x2_acsrx1/0_3w_cs_BN";
  distance_BN 7.5664;
  distance_BE 34.500;
  distance_NE 27.000;
}
object line_spacing {
  name "spc_3ph_h-2/0_acsr2/0_acsr2/0_acsr4_acsr_ABCN";
  distance_AB 3.2016;
  distance_AC 4.000;
  distance_AN 5.5902;
  distance_AE 32.000;
  distance_BC 2.500;
  distance_BN 7.000;
  distance_BE 34.000;
  distance_CN 5.2202;
  distance_CE 32.000;
  distance_NE 27.000;
}
object line_spacing {
  name "spc_1ph-4_wpalxx2_wpal_AN";
  distance_AN 7.5664;
  distance_AE 34.500;
  distance_NE 27.000;
}
object line_spacing {
  name "spc_1ph-x2_acsrx4_tpx_BN";
  distance_BN 7.5664;
  distance_BE 34.500;
  distance_NE 27.000;
}
object line_spacing {
  name "spc_3ph-69kv_397_treewire_ABCN";
  distance_AB 6.4185;
  distance_AC 10.0066;
  distance_AN 16.0806;
  distance_AE 39.9934;
  distance_BC 6.3929;
  distance_BN 11.2716;
  distance_BE 45.0131;
  distance_CN 6.1885;
  distance_CE 50.000;
  distance_NE 56.0039;
}
object line_spacing {
  name "spc_1ph-x2_acsrx4_acsr_BN";
  distance_BN 7.5664;
  distance_BE 34.500;
  distance_NE 27.000;
}
object line_spacing {
  name "spc_1ph-4_wpalxx4_acsr_AN";
  distance_AN 7.5664;
  distance_AE 34.500;
  distance_NE 27.000;
}
object line_spacing {
  name "spc_1ph-2_wpalxx2_wpal_AN";
  distance_AN 7.5664;
  distance_AE 34.500;
  distance_NE 27.000;
}
object line_spacing {
  name "spc_1ph-4_acsrxx2_acsr_AN";
  distance_AN 7.5664;
  distance_AE 34.500;
  distance_NE 27.000;
}
object line_spacing {
  name "spc_1ph-4_acsrxx2_acsr_CN";
  distance_CN 7.5664;
  distance_CE 34.500;
  distance_NE 27.000;
}
object line_spacing {
  name "spc_1ph-x4_acsrx4_acsr_AN";
  distance_AN 7.5664;
  distance_AE 34.500;
  distance_NE 27.000;
}
object line_spacing {
  name "spc_1ph-x4_acsrx4_acsr_BN";
  distance_BN 7.5664;
  distance_BE 34.500;
  distance_NE 27.000;
}
object line_spacing {
  name "spc_3ph_h-4_acsr4_acsr4_acsr4_acsr_ABCN";
  distance_AB 3.2016;
  distance_AC 4.000;
  distance_AN 5.5902;
  distance_AE 32.000;
  distance_BC 2.500;
  distance_BN 7.000;
  distance_BE 34.000;
  distance_CN 5.2202;
  distance_CE 32.000;
  distance_NE 27.000;
}
object line_spacing {
  name "spc_1ph-xx2_acsr4_dpx_CN";
  distance_CN 7.5664;
  distance_CE 34.500;
  distance_NE 27.000;
}
object line_spacing {
  name "spc_1ph-x2_acsrx2_acsr_AN";
  distance_AN 7.5664;
  distance_AE 34.500;
  distance_NE 27.000;
}
object line_spacing {
  name "spc_1ph-x2_acsrx2_acsr_BN";
  distance_BN 7.5664;
  distance_BE 34.500;
  distance_NE 27.000;
}
object line_spacing {
  name "spc_1ph-x2_acsrx2_acsr_CN";
  distance_CN 7.5664;
  distance_CE 34.500;
  distance_NE 27.000;
}
object line_spacing {
  name "spc_1ph-4_acsrxx4_wpal_AN";
  distance_AN 7.5664;
  distance_AE 34.500;
  distance_NE 27.000;
}
object line_spacing {
  name "spc_1ph-xx4_acsr2_acsr_CN";
  distance_CN 7.5664;
  distance_CE 34.500;
  distance_NE 27.000;
}
object line_spacing {
  name "spc_1ph-4_wpalxx1/0_tpx_AN";
  distance_AN 7.5664;
  distance_AE 34.500;
  distance_NE 27.000;
}
object line_spacing {
  name "spc_3ph_h-397_acsr397_acsr397_acsr397_acsr_ABCN";
  distance_AB 3.2016;
  distance_AC 4.000;
  distance_AN 5.5902;
  distance_AE 32.000;
  distance_BC 2.500;
  distance_BN 7.000;
  distance_BE 34.000;
  distance_CN 5.2202;
  distance_CE 32.000;
  distance_NE 27.000;
}
object line_spacing {
  name "spc_1ph-xx2_acsr1/0_tpx_CN";
  distance_CN 7.5664;
  distance_CE 34.500;
  distance_NE 27.000;
}
object line_spacing {
  name "spc_3ph_h-2_acsr2_acsr2_acsr2_acsr_ABCN";
  distance_AB 3.2016;
  distance_AC 4.000;
  distance_AN 5.5902;
  distance_AE 32.000;
  distance_BC 2.500;
  distance_BN 7.000;
  distance_BE 34.000;
  distance_CN 5.2202;
  distance_CE 32.000;
  distance_NE 27.000;
}
object line_spacing {
  name "spc_1ph-xx4_acsr4_wpal_AN";
  distance_AN 7.5664;
  distance_AE 34.500;
  distance_NE 27.000;
}
object line_spacing {
  name "spc_1ph-xx4_acsr4_wpal_CN";
  distance_CN 7.5664;
  distance_CE 34.500;
  distance_NE 27.000;
}
object line_spacing {
  name "spc_1ph-2/0_acsrxx2_acsr_AN";
  distance_AN 7.5664;
  distance_AE 34.500;
  distance_NE 27.000;
}
object line_spacing {
  name "spc_1ph-xx2/0_acsr1/0_tpx_CN";
  distance_CN 7.5664;
  distance_CE 34.500;
  distance_NE 27.000;
}
object line_spacing {
  name "spc_3ph_h-397_acsr397_acsr397_acsr2/0_acsr_ABCN";
  distance_AB 3.2016;
  distance_AC 4.000;
  distance_AN 5.5902;
  distance_AE 32.000;
  distance_BC 2.500;
  distance_BN 7.000;
  distance_BE 34.000;
  distance_CN 5.2202;
  distance_CE 32.000;
  distance_NE 27.000;
}
object line_spacing {
  name "spc_1ph-xx2_acsr2_acsr_AN";
  distance_AN 7.5664;
  distance_AE 34.500;
  distance_NE 27.000;
}
object line_spacing {
  name "spc_1ph-xx2_acsr2_acsr_CN";
  distance_CN 7.5664;
  distance_CE 34.500;
  distance_NE 27.000;
}
object line_spacing {
  name "spc_3ph_h-2/0_acsr2/0_acsr2/0_acsr2_wpal_ABCN";
  distance_AB 3.2016;
  distance_AC 4.000;
  distance_AN 5.5902;
  distance_AE 32.000;
  distance_BC 2.500;
  distance_BN 7.000;
  distance_BE 34.000;
  distance_CN 5.2202;
  distance_CE 32.000;
  distance_NE 27.000;
}
object line_spacing {
  name "spc_1ph-4_wpalxx4_wpal_AN";
  distance_AN 7.5664;
  distance_AE 34.500;
  distance_NE 27.000;
}
object line_spacing {
  name "spc_1ph-4_wpalxx4_wpal_CN";
  distance_CN 7.5664;
  distance_CE 34.500;
  distance_NE 27.000;
}
object line_spacing {
  name "spc_3ph_h-4_acsr4_acsr4_acsr4_tpx_ABCN";
  distance_AB 3.2016;
  distance_AC 4.000;
  distance_AN 5.5902;
  distance_AE 32.000;
  distance_BC 2.500;
  distance_BN 7.000;
  distance_BE 34.000;
  distance_CN 5.2202;
  distance_CE 32.000;
  distance_NE 27.000;
}
object line_spacing {
  name "spc_1ph-4_acsrxx1/0_3w_cs_AN";
  distance_AN 7.5664;
  distance_AE 34.500;
  distance_NE 27.000;
}
object line_configuration {
  name "lcon_3ph_h-397_acsr397_acsr397_acsr397_acsr_ln5742828-1";
  spacing "spc_3ph_h-397_acsr397_acsr397_acsr397_acsr_ABCN";
  conductor_A "wire_397_acsr";
  conductor_B "wire_397_acsr";
  conductor_C "wire_397_acsr";
  conductor_N "wire_397_acsr";
}
object line_configuration {
  name "lcon_1ph-4_acsrxx4_wpal_ln6108134-1";
  spacing "spc_1ph-4_acsrxx4_wpal_AN";
  conductor_A "wire_4_acsr";
  conductor_N "wire_4_wpal";
}
object line_configuration {
  name "lcon_1ph-4_wpalxx1/0_tpx_ln5895784-1";
  spacing "spc_1ph-4_wpalxx1/0_tpx_AN";
  conductor_A "wire_4_wpal";
  conductor_N "wire_1/0_tpx";
}
object line_configuration {
  name "lcon_1ph-4_acsrxx2_acsr_ln6019479-1";
  spacing "spc_1ph-4_acsrxx2_acsr_CN";
  conductor_C "wire_4_acsr";
  conductor_N "wire_2_acsr";
}
object line_configuration {
  name "lcon_1ph-x2_acsrx1/0_tpx_ln5532786-2";
  spacing "spc_1ph-x2_acsrx1/0_tpx_BN";
  conductor_B "wire_2_acsr";
  conductor_N "wire_1/0_tpx";
}
object line_configuration {
  name "lcon_1ph-x4_acsrx2_wpal_ln5496577-1";
  spacing "spc_1ph-x4_acsrx2_wpal_BN";
  conductor_B "wire_4_acsr";
  conductor_N "wire_2_wpal";
}
object line_configuration {
  name "lcon_1ph-x2_acsrx1/0_3w_cs_ln6043468-3";
  spacing "spc_1ph-x2_acsrx1/0_3w_cs_BN";
  conductor_B "wire_2_acsr";
  conductor_N "wire_1/0_3w_cs";
}
object line_configuration {
  name "lcon_1ph-4_acsrxx6_wpal_ln5895785-1";
  spacing "spc_1ph-4_acsrxx6_wpal_AN";
  conductor_A "wire_4_acsr";
  conductor_N "wire_6_wpal";
}
object line_configuration {
  name "lcon_3ph_h-397_acsr397_acsr397_acsr2/0_wpal_ln6291244-1";
  spacing "spc_3ph_h-397_acsr397_acsr397_acsr2/0_wpal_ABCN";
  conductor_A "wire_397_acsr";
  conductor_B "wire_397_acsr";
  conductor_C "wire_397_acsr";
  conductor_N "wire_2/0_wpal";
}
object line_configuration {
  name "lcon_1ph-xx2_acsr4_dpx_ln5744331-1";
  spacing "spc_1ph-xx2_acsr4_dpx_CN";
  conductor_C "wire_2_acsr";
  conductor_N "wire_4_dpx";
}
object line_configuration {
  name "lcon_1ph-4_acsrxx1/0_3w_cs_ln5686244-1";
  spacing "spc_1ph-4_acsrxx1/0_3w_cs_AN";
  conductor_A "wire_4_acsr";
  conductor_N "wire_1/0_3w_cs";
}
object line_configuration {
  name "lcon_1ph-4_wpalxx4_wpal_ln6198049-1";
  spacing "spc_1ph-4_wpalxx4_wpal_CN";
  conductor_C "wire_4_wpal";
  conductor_N "wire_4_wpal";
}
object line_configuration {
  name "lcon_1p_1/0_axnj_db_ln8945010-1";
  spacing "spc_1p_1/0_axnj_db_C";
  conductor_C "cncab_1/0_al_15kv_1/3";
}
object line_configuration {
  name "lcon_1ph-2_acsrxx1/0_tpx_ln5528573-2";
  spacing "spc_1ph-2_acsrxx1/0_tpx_AN";
  conductor_A "wire_2_acsr";
  conductor_N "wire_1/0_tpx";
}
object line_configuration {
  name "lcon_1ph-2_acsrxx2_acsr_ln6320335-1";
  spacing "spc_1ph-2_acsrxx2_acsr_AN";
  conductor_A "wire_2_acsr";
  conductor_N "wire_2_acsr";
}
object line_configuration {
  name "lcon_3ph_h-4_acsr4_acsr4_acsr4_tpx_ln5742835-1";
  spacing "spc_3ph_h-4_acsr4_acsr4_acsr4_tpx_ABCN";
  conductor_A "wire_4_acsr";
  conductor_B "wire_4_acsr";
  conductor_C "wire_4_acsr";
  conductor_N "wire_4_tpx";
}
object line_configuration {
  name "lcon_1ph-xx4_acsr1/0_acsr_ln5852082-1";
  spacing "spc_1ph-xx4_acsr1/0_acsr_CN";
  conductor_C "wire_4_acsr";
  conductor_N "wire_1/0_acsr";
}
object line_configuration {
  name "lcon_1ph-x2_acsrx4_tpx_ln6169266-1";
  spacing "spc_1ph-x2_acsrx4_tpx_BN";
  conductor_B "wire_2_acsr";
  conductor_N "wire_4_tpx";
}
object line_configuration {
  name "lcon_3ph_h-4_acsr2_acsr2_acsr4_wpal_ln5774458-1";
  spacing "spc_3ph_h-4_acsr2_acsr2_acsr4_wpal_ABCN";
  conductor_A "wire_4_acsr";
  conductor_B "wire_2_acsr";
  conductor_C "wire_2_acsr";
  conductor_N "wire_4_wpal";
}
object line_configuration {
  name "lcon_1ph-xx4_wpal1/0_tpx_ln5956462-1";
  spacing "spc_1ph-xx4_wpal1/0_tpx_CN";
  conductor_C "wire_4_wpal";
  conductor_N "wire_1/0_tpx";
}
object line_configuration {
  name "lcon_1ph-xx2_acsr2_acsr_ln6411379-1";
  spacing "spc_1ph-xx2_acsr2_acsr_AN";
  conductor_A "wire_2_acsr";
  conductor_N "wire_2_acsr";
}
object line_configuration {
  name "lcon_3ph_h-2/0_acsr2/0_acsr2/0_acsr4_acsr_ln5898194-1";
  spacing "spc_3ph_h-2/0_acsr2/0_acsr2/0_acsr4_acsr_ABCN";
  conductor_A "wire_2/0_acsr";
  conductor_B "wire_2/0_acsr";
  conductor_C "wire_2/0_acsr";
  conductor_N "wire_4_acsr";
}
object line_configuration {
  name "lcon_1ph-x4_acsrx1/0_tpx_ln5562952-1";
  spacing "spc_1ph-x4_acsrx1/0_tpx_BN";
  conductor_B "wire_4_acsr";
  conductor_N "wire_1/0_tpx";
}
object line_configuration {
  name "lcon_1ph-2_acsrxx4/0_tpx_ln6103927-1";
  spacing "spc_1ph-2_acsrxx4/0_tpx_AN";
  conductor_A "wire_2_acsr";
  conductor_N "wire_4/0_tpx";
}
object line_configuration {
  name "lcon_1ph-4_wpalxx2_wpal_ln5561444-1";
  spacing "spc_1ph-4_wpalxx2_wpal_AN";
  conductor_A "wire_4_wpal";
  conductor_N "wire_2_wpal";
}
object line_configuration {
  name "lcon_3ph_h-2/0_acsr2/0_acsr2/0_acsr2_acsr_ln1047pvfrm-2";
  spacing "spc_3ph_h-2/0_acsr2/0_acsr2/0_acsr2_acsr_ABCN";
  conductor_A "wire_2/0_acsr";
  conductor_B "wire_2/0_acsr";
  conductor_C "wire_2/0_acsr";
  conductor_N "wire_2_acsr";
}
object line_configuration {
  name "lcon_1ph-x4_wpalx2_acsr_ln5472350-1";
  spacing "spc_1ph-x4_wpalx2_acsr_BN";
  conductor_B "wire_4_wpal";
  conductor_N "wire_2_acsr";
}
object line_configuration {
  name "lcon_1ph-2_wpalxx2_wpal_ln6409800-1";
  spacing "spc_1ph-2_wpalxx2_wpal_AN";
  conductor_A "wire_2_wpal";
  conductor_N "wire_2_wpal";
}
object line_configuration {
  name "lcon_3ph_h-2_acsr2_acsr4_acsr4_acsr_ln5655838-1";
  spacing "spc_3ph_h-2_acsr2_acsr4_acsr4_acsr_ABCN";
  conductor_A "wire_2_acsr";
  conductor_B "wire_2_acsr";
  conductor_C "wire_4_acsr";
  conductor_N "wire_4_acsr";
}
object line_configuration {
  name "lcon_1ph-xx4_acsr4_wpal_ln5833622-1";
  spacing "spc_1ph-xx4_acsr4_wpal_CN";
  conductor_C "wire_4_acsr";
  conductor_N "wire_4_wpal";
}
object line_configuration {
  name "lcon_3p_1/0_axnj_db_ln8979254-2";
  spacing "spc_3p_1/0_axnj_db_ABC";
  conductor_A "cncab_1/0_al_15kv_1/3";
  conductor_B "cncab_1/0_al_15kv_1/3";
  conductor_C "cncab_1/0_al_15kv_1/3";
}
object line_configuration {
  name "lcon_1ph-2_acsrxx4_acsr_ln5589097-1";
  spacing "spc_1ph-2_acsrxx4_acsr_AN";
  conductor_A "wire_2_acsr";
  conductor_N "wire_4_acsr";
}
object line_configuration {
  name "lcon_1ph-xx2_acsr2_acsr_ln5565091-1";
  spacing "spc_1ph-xx2_acsr2_acsr_CN";
  conductor_C "wire_2_acsr";
  conductor_N "wire_2_acsr";
}
object line_configuration {
  name "lcon_3ph_h-2_acsr2_acsr2_acsr2_acsr_ln5958865-1";
  spacing "spc_3ph_h-2_acsr2_acsr2_acsr2_acsr_ABCN";
  conductor_A "wire_2_acsr";
  conductor_B "wire_2_acsr";
  conductor_C "wire_2_acsr";
  conductor_N "wire_2_acsr";
}
object line_configuration {
  name "lcon_1ph-xx6_wpal6_wpal_ln6108128-2";
  spacing "spc_1ph-xx6_wpal6_wpal_CN";
  conductor_C "wire_6_wpal";
  conductor_N "wire_6_wpal";
}
object line_configuration {
  name "lcon_1ph-xx4_acsr4_tpx_ln5531226-1";
  spacing "spc_1ph-xx4_acsr4_tpx_CN";
  conductor_C "wire_4_acsr";
  conductor_N "wire_4_tpx";
}
object line_configuration {
  name "lcon_1ph-xx4_wpal4_acsr_ln6108135-1";
  spacing "spc_1ph-xx4_wpal4_acsr_CN";
  conductor_C "wire_4_wpal";
  conductor_N "wire_4_acsr";
}
object line_configuration {
  name "lcon_1ph-x4_acsrx4_acsr_ln5833720-1";
  spacing "spc_1ph-x4_acsrx4_acsr_BN";
  conductor_B "wire_4_acsr";
  conductor_N "wire_4_acsr";
}
object line_configuration {
  name "lcon_1ph-4_wpalxx4_acsr_ln5835146-1";
  spacing "spc_1ph-4_wpalxx4_acsr_AN";
  conductor_A "wire_4_wpal";
  conductor_N "wire_4_acsr";
}
object line_configuration {
  name "lcon_1ph-2_acsrxx4_wpal_ln5686245-2";
  spacing "spc_1ph-2_acsrxx4_wpal_AN";
  conductor_A "wire_2_acsr";
  conductor_N "wire_4_wpal";
}
object line_configuration {
  name "lcon_1ph-x4_wpalx1/0_tpx_ln6077771-1";
  spacing "spc_1ph-x4_wpalx1/0_tpx_BN";
  conductor_B "wire_4_wpal";
  conductor_N "wire_1/0_tpx";
}
object line_configuration {
  name "lcon_1ph-4_acsrxx4_acsr_ln6392977-2";
  spacing "spc_1ph-4_acsrxx4_acsr_AN";
  conductor_A "wire_4_acsr";
  conductor_N "wire_4_acsr";
}
object line_configuration {
  name "lcon_3ph-69kv_397_treewire_hvmv69s1s2-3";
  spacing "spc_3ph-69kv_397_treewire_ABCN";
  conductor_A "wire_397_aac_treewire";
  conductor_B "wire_397_aac_treewire";
  conductor_C "wire_397_aac_treewire";
  conductor_N "wire_2/0_acsr";
}
object line_configuration {
  name "lcon_1ph-xx4_acsr4_acsr_ln5744357-1";
  spacing "spc_1ph-xx4_acsr4_acsr_AN";
  conductor_A "wire_4_acsr";
  conductor_N "wire_4_acsr";
}
object line_configuration {
  name "lcon_3ph_h-4_wpal4_wpal4_wpal1/0_tpx_ln6411371-1";
  spacing "spc_3ph_h-4_wpal4_wpal4_wpal1/0_tpx_ABCN";
  conductor_A "wire_4_wpal";
  conductor_B "wire_4_wpal";
  conductor_C "wire_4_wpal";
  conductor_N "wire_1/0_tpx";
}
object line_configuration {
  name "lcon_1ph-x4_acsrx1/0_3w_cs_ln5775368-1";
  spacing "spc_1ph-x4_acsrx1/0_3w_cs_BN";
  conductor_B "wire_4_acsr";
  conductor_N "wire_1/0_3w_cs";
}
object line_configuration {
  name "lcon_3ph_h-4_acsr4_acsr4_acsr4_acsr_ln6380810-1";
  spacing "spc_3ph_h-4_acsr4_acsr4_acsr4_acsr_ABCN";
  conductor_A "wire_4_acsr";
  conductor_B "wire_4_acsr";
  conductor_C "wire_4_acsr";
  conductor_N "wire_4_acsr";
}
object line_configuration {
  name "lcon_1ph-xx2_acsr1/0_tpx_ln6229827-1";
  spacing "spc_1ph-xx2_acsr1/0_tpx_CN";
  conductor_C "wire_2_acsr";
  conductor_N "wire_1/0_tpx";
}
object line_configuration {
  name "lcon_1p_1/0_axnj_db_ln81048087-1";
  spacing "spc_1p_1/0_axnj_db_B";
  conductor_B "cncab_1/0_al_15kv_1/3";
}
object line_configuration {
  name "lcon_1ph-2_acsrxx2_acsr_ln5528079-3";
  spacing "spc_1ph-2_acsrxx2_acsr_CN";
  conductor_C "wire_2_acsr";
  conductor_N "wire_2_acsr";
}
object line_configuration {
  name "lcon_1ph-x4_acsrx4_acsr_ln5683000-1";
  spacing "spc_1ph-x4_acsrx4_acsr_AN";
  conductor_A "wire_4_acsr";
  conductor_N "wire_4_acsr";
}
object line_configuration {
  name "lcon_1ph-4_wpalxx4_wpal_ln5472359-1";
  spacing "spc_1ph-4_wpalxx4_wpal_AN";
  conductor_A "wire_4_wpal";
  conductor_N "wire_4_wpal";
}
object line_configuration {
  name "lcon_1ph-xx4_acsr4_wpal_ln5593235-1";
  spacing "spc_1ph-xx4_acsr4_wpal_AN";
  conductor_A "wire_4_acsr";
  conductor_N "wire_4_wpal";
}
object line_configuration {
  name "lcon_1ph-x4_acsrx4_dpx_ln6506308-1";
  spacing "spc_1ph-x4_acsrx4_dpx_BN";
  conductor_B "wire_4_acsr";
  conductor_N "wire_4_dpx";
}
object line_configuration {
  name "lcon_1ph-x4_wpalx4_wpal_ln5654485-1";
  spacing "spc_1ph-x4_wpalx4_wpal_BN";
  conductor_B "wire_4_wpal";
  conductor_N "wire_4_wpal";
}
object line_configuration {
  name "lcon_1ph-4_acsrxx4_acsr_ln6320366-1";
  spacing "spc_1ph-4_acsrxx4_acsr_CN";
  conductor_C "wire_4_acsr";
  conductor_N "wire_4_acsr";
}
object line_configuration {
  name "lcon_1ph-x2_acsrx4_acsr_ln6201698-2";
  spacing "spc_1ph-x2_acsrx4_acsr_BN";
  conductor_B "wire_2_acsr";
  conductor_N "wire_4_acsr";
}
object line_configuration {
  name "lcon_1ph-4_acsrxx2_acsr_ln5775367-1";
  spacing "spc_1ph-4_acsrxx2_acsr_AN";
  conductor_A "wire_4_acsr";
  conductor_N "wire_2_acsr";
}
object line_configuration {
  name "lcon_1ph-x2_acsrx2_acsr_ln2001215-1";
  spacing "spc_1ph-x2_acsrx2_acsr_CN";
  conductor_C "wire_2_acsr";
  conductor_N "wire_2_acsr";
}
object line_configuration {
  name "lcon_3ph_h-2/0_acsr2/0_acsr2/0_acsr2_wpal_ln6259996-1";
  spacing "spc_3ph_h-2/0_acsr2/0_acsr2/0_acsr2_wpal_ABCN";
  conductor_A "wire_2/0_acsr";
  conductor_B "wire_2/0_acsr";
  conductor_C "wire_2/0_acsr";
  conductor_N "wire_2_wpal";
}
object line_configuration {
  name "lcon_1ph-2/0_acsrxx2_acsr_ln6129680-2";
  spacing "spc_1ph-2/0_acsrxx2_acsr_AN";
  conductor_A "wire_2/0_acsr";
  conductor_N "wire_2_acsr";
}
object line_configuration {
  name "lcon_1ph-xx4_wpal4_wpal_ln6018241-1";
  spacing "spc_1ph-xx4_wpal4_wpal_CN";
  conductor_C "wire_4_wpal";
  conductor_N "wire_4_wpal";
}
object line_configuration {
  name "lcon_1ph-4_acsrxx1/0_tpx_ln6138596-1";
  spacing "spc_1ph-4_acsrxx1/0_tpx_AN";
  conductor_A "wire_4_acsr";
  conductor_N "wire_1/0_tpx";
}
object line_configuration {
  name "lcon_1p_1/0_axnj_db_ln8979370-1";
  spacing "spc_1p_1/0_axnj_db_A";
  conductor_A "cncab_1/0_al_15kv_1/3";
}
object line_configuration {
  name "lcon_3ph_h-4_acsr4_acsr4_acsr4_wpal_ln5927423-1";
  spacing "spc_3ph_h-4_acsr4_acsr4_acsr4_wpal_ABCN";
  conductor_A "wire_4_acsr";
  conductor_B "wire_4_acsr";
  conductor_C "wire_4_acsr";
  conductor_N "wire_4_wpal";
}
object line_configuration {
  name "lcon_1ph-xx2/0_acsr1/0_tpx_ln5866260-1";
  spacing "spc_1ph-xx2/0_acsr1/0_tpx_CN";
  conductor_C "wire_2/0_acsr";
  conductor_N "wire_1/0_tpx";
}
object line_configuration {
  name "lcon_1ph-x4_acsrx4_tpx_ln5804795-1";
  spacing "spc_1ph-x4_acsrx4_tpx_BN";
  conductor_B "wire_4_acsr";
  conductor_N "wire_4_tpx";
}
object line_configuration {
  name "lcon_1ph-xx4_acsr4_acsr_ln6138606-1";
  spacing "spc_1ph-xx4_acsr4_acsr_BN";
  conductor_B "wire_4_acsr";
  conductor_N "wire_4_acsr";
}
object line_configuration {
  name "lcon_1ph-x2_acsrx2_acsr_ln2001313-1";
  spacing "spc_1ph-x2_acsrx2_acsr_AN";
  conductor_A "wire_2_acsr";
  conductor_N "wire_2_acsr";
}
object line_configuration {
  name "lcon_1ph-x4_acsrx4_wpal_ln6137086-2";
  spacing "spc_1ph-x4_acsrx4_wpal_BN";
  conductor_B "wire_4_acsr";
  conductor_N "wire_4_wpal";
}
object line_configuration {
  name "lcon_1ph-x2_acsrx2_acsr_ln5835159-1";
  spacing "spc_1ph-x2_acsrx2_acsr_BN";
  conductor_B "wire_2_acsr";
  conductor_N "wire_2_acsr";
}
object line_configuration {
  name "lcon_3ph_h-4_wpal4_wpal4_wpal4_wpal_ln5956464-1";
  spacing "spc_3ph_h-4_wpal4_wpal4_wpal4_wpal_ABCN";
  conductor_A "wire_4_wpal";
  conductor_B "wire_4_wpal";
  conductor_C "wire_4_wpal";
  conductor_N "wire_4_wpal";
}
object line_configuration {
  name "lcon_3ph_h-397_acsr397_acsr397_acsr2/0_acsr_ln6291242-1";
  spacing "spc_3ph_h-397_acsr397_acsr397_acsr2/0_acsr_ABCN";
  conductor_A "wire_397_acsr";
  conductor_B "wire_397_acsr";
  conductor_C "wire_397_acsr";
  conductor_N "wire_2/0_acsr";
}
object line_configuration {
  name "lcon_1ph-xx4_acsr2_acsr_ln5741170-3";
  spacing "spc_1ph-xx4_acsr2_acsr_CN";
  conductor_C "wire_4_acsr";
  conductor_N "wire_2_acsr";
}
object line_configuration {
  name "lcon_1ph-x4_wpalx4_acsr_ln6047568-1";
  spacing "spc_1ph-x4_wpalx4_acsr_BN";
  conductor_B "wire_4_wpal";
  conductor_N "wire_4_acsr";
}
object line_configuration {
  name "lcon_1ph-xx4_acsr4_acsr_ln5563852-1";
  spacing "spc_1ph-xx4_acsr4_acsr_CN";
  conductor_C "wire_4_acsr";
  conductor_N "wire_4_acsr";
}
object line_configuration {
  name "lcon_2ph_h-2_acsrx2_acsr2_acsr_ln5637597-1";
  spacing "spc_2ph_h-2_acsrx2_acsr2_acsr_ACN";
  conductor_A "wire_2_acsr";
  conductor_C "wire_2_acsr";
  conductor_N "wire_2_acsr";
}
object line_configuration {
  name "lcon_cap_1c_PUZ_C";
  z33 1.00000+1.00000j;
  c33 0.000;
}
object line_configuration {
  name "lcon_cap_3b_PUZ_B";
  z22 1.00000+1.00000j;
  c22 0.000;
}
object line_configuration {
  name "lcon_cap_1b_PUZ_B";
  z22 1.00000+1.00000j;
  c22 0.000;
}
object line_configuration {
  name "lcon_cap_3a_PUZ_A";
  z11 1.00000+1.00000j;
  c11 0.000;
}
object line_configuration {
  name "lcon_cap_1a_PUZ_A";
  z11 1.00000+1.00000j;
  c11 0.000;
}
object line_configuration {
  name "lcon_cap_2a_PUZ_A";
  z11 1.00000+1.00000j;
  c11 0.000;
}
object line_configuration {
  name "lcon_cap_3c_PUZ_C";
  z33 1.00000+1.00000j;
  c33 0.000;
}
object triplex_line_configuration {
  name "tcon_4/0triplex_12";
  z11 2.16454+0.880800j;
  z12 0.623542+0.673688j;
  z21 0.623542+0.673688j;
  z22 2.16454+0.880800j;
}
object line_configuration {
  name "lcon_cap_2c_PUZ_C";
  z33 1.00000+1.00000j;
  c33 0.000;
}
object triplex_line_configuration {
  name "tcon_750_triplex_12";
  z11 0.262666+0.146913j;
  z12 0.123666+0.0353481j;
  z21 0.123666+0.0353481j;
  z22 0.262666+0.146913j;
}
object line_configuration {
  name "lcon_cap_2b_PUZ_B";
  z22 1.00000+1.00000j;
  c22 0.000;
}
object transformer_configuration {
  name "xcon_ct100B";
  power_rating 100.00;
  primary_voltage 7200.00;
  secondary_voltage 120.00;
  connect_type SINGLE_PHASE_CENTER_TAPPED;
  impedance 0.00600000+0.0136000j;
  impedance1 0.0120000+0.00680000j;
  impedance2 0.0120000+0.00680000j;
  shunt_reactance 200.00;
  shunt_resistance 500.00;
}
object transformer_configuration {
  name "xcon_ct250A";
  power_rating 250.00;
  primary_voltage 7200.00;
  secondary_voltage 120.00;
  connect_type SINGLE_PHASE_CENTER_TAPPED;
  impedance 0.00600000+0.0136000j;
  impedance1 0.0120000+0.00680000j;
  impedance2 0.0120000+0.00680000j;
  shunt_reactance 200.00;
  shunt_resistance 500.00;
}
object transformer_configuration {
  name "xcon_ct250B";
  power_rating 250.00;
  primary_voltage 7200.00;
  secondary_voltage 120.00;
  connect_type SINGLE_PHASE_CENTER_TAPPED;
  impedance 0.00600000+0.0136000j;
  impedance1 0.0120000+0.00680000j;
  impedance2 0.0120000+0.00680000j;
  shunt_reactance 200.00;
  shunt_resistance 500.00;
}
object transformer_configuration {
  name "xcon_ct250C";
  power_rating 250.00;
  primary_voltage 7200.00;
  secondary_voltage 120.00;
  connect_type SINGLE_PHASE_CENTER_TAPPED;
  impedance 0.00600000+0.0136000j;
  impedance1 0.0120000+0.00680000j;
  impedance2 0.0120000+0.00680000j;
  shunt_reactance 200.00;
  shunt_resistance 500.00;
}
object transformer_configuration {
  name "xcon_ct25A";
  power_rating 25.00;
  primary_voltage 7200.00;
  secondary_voltage 120.00;
  connect_type SINGLE_PHASE_CENTER_TAPPED;
  impedance 0.00600000+0.0136000j;
  impedance1 0.0120000+0.00680000j;
  impedance2 0.0120000+0.00680000j;
  shunt_reactance 200.00;
  shunt_resistance 500.00;
}
object transformer_configuration {
  name "xcon_ct25B";
  power_rating 25.00;
  primary_voltage 7200.00;
  secondary_voltage 120.00;
  connect_type SINGLE_PHASE_CENTER_TAPPED;
  impedance 0.00600000+0.0136000j;
  impedance1 0.0120000+0.00680000j;
  impedance2 0.0120000+0.00680000j;
  shunt_reactance 200.00;
  shunt_resistance 500.00;
}
object transformer_configuration {
  name "xcon_ct25C";
  power_rating 25.00;
  primary_voltage 7200.00;
  secondary_voltage 120.00;
  connect_type SINGLE_PHASE_CENTER_TAPPED;
  impedance 0.00600000+0.0136000j;
  impedance1 0.0120000+0.00680000j;
  impedance2 0.0120000+0.00680000j;
  shunt_reactance 200.00;
  shunt_resistance 500.00;
}
object transformer_configuration {
  name "xcon_ct75A";
  power_rating 75.00;
  primary_voltage 7200.00;
  secondary_voltage 120.00;
  connect_type SINGLE_PHASE_CENTER_TAPPED;
  impedance 0.00600000+0.0136000j;
  impedance1 0.0120000+0.00680000j;
  impedance2 0.0120000+0.00680000j;
  shunt_reactance 200.00;
  shunt_resistance 500.00;
}
object transformer_configuration {
  name "xcon_ct75B";
  power_rating 75.00;
  primary_voltage 7200.00;
  secondary_voltage 120.00;
  connect_type SINGLE_PHASE_CENTER_TAPPED;
  impedance 0.00600000+0.0136000j;
  impedance1 0.0120000+0.00680000j;
  impedance2 0.0120000+0.00680000j;
  shunt_reactance 200.00;
  shunt_resistance 500.00;
}
object transformer_configuration {
  name "xcon_ct75C";
  power_rating 75.00;
  primary_voltage 7200.00;
  secondary_voltage 120.00;
  connect_type SINGLE_PHASE_CENTER_TAPPED;
  impedance 0.00600000+0.0136000j;
  impedance1 0.0120000+0.00680000j;
  impedance2 0.0120000+0.00680000j;
  shunt_reactance 200.00;
  shunt_resistance 500.00;
}
object transformer_configuration {
  name "xcon_ct50A";
  power_rating 50.00;
  primary_voltage 7200.00;
  secondary_voltage 120.00;
  connect_type SINGLE_PHASE_CENTER_TAPPED;
  impedance 0.00600000+0.0136000j;
  impedance1 0.0120000+0.00680000j;
  impedance2 0.0120000+0.00680000j;
  shunt_reactance 200.00;
  shunt_resistance 500.00;
}
object transformer_configuration {
  name "xcon_ct50B";
  power_rating 50.00;
  primary_voltage 7200.00;
  secondary_voltage 120.00;
  connect_type SINGLE_PHASE_CENTER_TAPPED;
  impedance 0.00600000+0.0136000j;
  impedance1 0.0120000+0.00680000j;
  impedance2 0.0120000+0.00680000j;
  shunt_reactance 200.00;
  shunt_resistance 500.00;
}
object transformer_configuration {
  name "xcon_ct50C";
  power_rating 50.00;
  primary_voltage 7200.00;
  secondary_voltage 120.00;
  connect_type SINGLE_PHASE_CENTER_TAPPED;
  impedance 0.00600000+0.0136000j;
  impedance1 0.0120000+0.00680000j;
  impedance2 0.0120000+0.00680000j;
  shunt_reactance 200.00;
  shunt_resistance 500.00;
}
object transformer_configuration {
  name "xcon_ct5A";
  power_rating 5.00;
  primary_voltage 7200.00;
  secondary_voltage 120.00;
  connect_type SINGLE_PHASE_CENTER_TAPPED;
  impedance 0.00600000+0.0136000j;
  impedance1 0.0120000+0.00680000j;
  impedance2 0.0120000+0.00680000j;
  shunt_reactance 200.00;
  shunt_resistance 500.00;
}
object transformer_configuration {
  name "xcon_ct5B";
  power_rating 5.00;
  primary_voltage 7200.00;
  secondary_voltage 120.00;
  connect_type SINGLE_PHASE_CENTER_TAPPED;
  impedance 0.00600000+0.0136000j;
  impedance1 0.0120000+0.00680000j;
  impedance2 0.0120000+0.00680000j;
  shunt_reactance 200.00;
  shunt_resistance 500.00;
}
object transformer_configuration {
  name "xcon_ct5C";
  power_rating 5.00;
  primary_voltage 7200.00;
  secondary_voltage 120.00;
  connect_type SINGLE_PHASE_CENTER_TAPPED;
  impedance 0.00600000+0.0136000j;
  impedance1 0.0120000+0.00680000j;
  impedance2 0.0120000+0.00680000j;
  shunt_reactance 200.00;
  shunt_resistance 500.00;
}
object transformer_configuration {
  name "xcon_ct15A";
  power_rating 15.00;
  primary_voltage 7200.00;
  secondary_voltage 120.00;
  connect_type SINGLE_PHASE_CENTER_TAPPED;
  impedance 0.00600000+0.0136000j;
  impedance1 0.0120000+0.00680000j;
  impedance2 0.0120000+0.00680000j;
  shunt_reactance 200.00;
  shunt_resistance 500.00;
}
object transformer_configuration {
  name "xcon_ct15B";
  power_rating 15.00;
  primary_voltage 7200.00;
  secondary_voltage 120.00;
  connect_type SINGLE_PHASE_CENTER_TAPPED;
  impedance 0.00600000+0.0136000j;
  impedance1 0.0120000+0.00680000j;
  impedance2 0.0120000+0.00680000j;
  shunt_reactance 200.00;
  shunt_resistance 500.00;
}
object transformer_configuration {
  name "xcon_ct15C";
  power_rating 15.00;
  primary_voltage 7200.00;
  secondary_voltage 120.00;
  connect_type SINGLE_PHASE_CENTER_TAPPED;
  impedance 0.00600000+0.0136000j;
  impedance1 0.0120000+0.00680000j;
  impedance2 0.0120000+0.00680000j;
  shunt_reactance 200.00;
  shunt_resistance 500.00;
}
object transformer_configuration {
  name "xcon_ct37A";
  power_rating 37.500;
  primary_voltage 7200.00;
  secondary_voltage 120.00;
  connect_type SINGLE_PHASE_CENTER_TAPPED;
  impedance 0.00600000+0.0136000j;
  impedance1 0.0120000+0.00680000j;
  impedance2 0.0120000+0.00680000j;
  shunt_reactance 200.00;
  shunt_resistance 500.00;
}
object transformer_configuration {
  name "xcon_ct37B";
  power_rating 37.500;
  primary_voltage 7200.00;
  secondary_voltage 120.00;
  connect_type SINGLE_PHASE_CENTER_TAPPED;
  impedance 0.00600000+0.0136000j;
  impedance1 0.0120000+0.00680000j;
  impedance2 0.0120000+0.00680000j;
  shunt_reactance 200.00;
  shunt_resistance 500.00;
}
object transformer_configuration {
  name "xcon_ct37C";
  power_rating 37.500;
  primary_voltage 7200.00;
  secondary_voltage 120.00;
  connect_type SINGLE_PHASE_CENTER_TAPPED;
  impedance 0.00600000+0.0136000j;
  impedance1 0.0120000+0.00680000j;
  impedance2 0.0120000+0.00680000j;
  shunt_reactance 200.00;
  shunt_resistance 500.00;
}
object transformer_configuration {
  name "xcon_ct10A";
  power_rating 10.00;
  primary_voltage 7200.00;
  secondary_voltage 120.00;
  connect_type SINGLE_PHASE_CENTER_TAPPED;
  impedance 0.00600000+0.0136000j;
  impedance1 0.0120000+0.00680000j;
  impedance2 0.0120000+0.00680000j;
  shunt_reactance 200.00;
  shunt_resistance 500.00;
}
object transformer_configuration {
  name "xcon_ct10B";
  power_rating 10.00;
  primary_voltage 7200.00;
  secondary_voltage 120.00;
  connect_type SINGLE_PHASE_CENTER_TAPPED;
  impedance 0.00600000+0.0136000j;
  impedance1 0.0120000+0.00680000j;
  impedance2 0.0120000+0.00680000j;
  shunt_reactance 200.00;
  shunt_resistance 500.00;
}
object transformer_configuration {
  name "xcon_ct10C";
  power_rating 10.00;
  primary_voltage 7200.00;
  secondary_voltage 120.00;
  connect_type SINGLE_PHASE_CENTER_TAPPED;
  impedance 0.00600000+0.0136000j;
  impedance1 0.0120000+0.00680000j;
  impedance2 0.0120000+0.00680000j;
  shunt_reactance 200.00;
  shunt_resistance 500.00;
}

//Define line objects 

object overhead_line {
  name "line_ln6320335-1";
  from "m1047671";
  to "l2710511";
  phases AN;
  length 199.6940;
  continuous_rating_A 100.00;
  emergency_rating_A 175.00;
  configuration "lcon_1ph-2_acsrxx2_acsr_ln6320335-1";
}
object overhead_line {
  name "line_ln6392977-2";
  from "m1027080";
  to "l3215340";
  phases AN;
  length 217.0226;
  continuous_rating_A 90.00;
  emergency_rating_A 130.00;
  configuration "lcon_1ph-4_acsrxx4_acsr_ln6392977-2";
}
object overhead_line {
  name "line_ln6392977-1";
  from "l3215340";
  to "m1027087";
  phases AN;
  length 113.9520;
  continuous_rating_A 90.00;
  emergency_rating_A 130.00;
  configuration "lcon_1ph-4_acsrxx4_acsr_ln6392977-2";
}
object overhead_line {
  name "line_ln5835159-1";
  from "m1069574";
  to "l2710530";
  phases BN;
  length 164.8425;
  continuous_rating_B 100.00;
  emergency_rating_B 175.00;
  configuration "lcon_1ph-x2_acsrx2_acsr_ln5835159-1";
}
object overhead_line {
  name "line_ln5653456-1";
  from "m1047755";
  to "l3066812";
  phases AN;
  length 51.9306;
  continuous_rating_A 90.00;
  emergency_rating_A 130.00;
  configuration "lcon_1ph-4_acsrxx4_acsr_ln6392977-2";
}
object overhead_line {
  name "line_ln5683825-1";
  from "m1026848";
  to "l2935557";
  phases AN;
  length 196.8740;
  continuous_rating_A 100.00;
  emergency_rating_A 175.00;
  configuration "lcon_1ph-2_acsrxx2_acsr_ln6320335-1";
}
object overhead_line {
  name "line_ln5621848-2";
  from "p901927";
  to "n1136353";
  phases BN;
  length 53.6051;
  continuous_rating_B 100.00;
  emergency_rating_B 175.00;
  configuration "lcon_1ph-x2_acsrx2_acsr_ln5835159-1";
}
object overhead_line {
  name "line_ln1047pvfrm-2";
  from "m1047pv-3";
  to "m1047pv-2";
  phases ABCN;
  length 347.4188;
  continuous_rating_A 225.00;
  continuous_rating_B 225.00;
  continuous_rating_C 225.00;
  emergency_rating_A 300.00;
  emergency_rating_B 300.00;
  emergency_rating_C 300.00;
  configuration "lcon_3ph_h-2/0_acsr2/0_acsr2/0_acsr2_acsr_ln1047pvfrm-2";
}
object overhead_line {
  name "line_ln6422014-1";
  from "m1108400";
  to "m1108404";
  phases ABCN;
  length 274.7637;
  continuous_rating_A 225.00;
  continuous_rating_B 225.00;
  continuous_rating_C 225.00;
  emergency_rating_A 300.00;
  emergency_rating_B 300.00;
  emergency_rating_C 300.00;
  configuration "lcon_3ph_h-2/0_acsr2/0_acsr2/0_acsr2_acsr_ln1047pvfrm-2";
}
object overhead_line {
  name "line_ln1047pvfrm-1";
  from "m1047pv-1";
  to "m1047520";
  phases ABCN;
  length 395.6069;
  continuous_rating_A 225.00;
  continuous_rating_B 225.00;
  continuous_rating_C 225.00;
  emergency_rating_A 300.00;
  emergency_rating_B 300.00;
  emergency_rating_C 300.00;
  configuration "lcon_3ph_h-2/0_acsr2/0_acsr2/0_acsr2_acsr_ln1047pvfrm-2";
}
object overhead_line {
  name "line_ln5833720-1";
  from "m1069582";
  to "l2933165";
  phases BN;
  length 206.9402;
  continuous_rating_B 90.00;
  emergency_rating_B 130.00;
  configuration "lcon_1ph-x4_acsrx4_acsr_ln5833720-1";
}
object overhead_line {
  name "line_ln5739188-1";
  from "l2726973";
  to "m1047485";
  phases ABCN;
  length 277.6810;
  continuous_rating_A 225.00;
  continuous_rating_B 225.00;
  continuous_rating_C 225.00;
  emergency_rating_A 300.00;
  emergency_rating_B 300.00;
  emergency_rating_C 300.00;
  configuration "lcon_3ph_h-2/0_acsr2/0_acsr2/0_acsr2_acsr_ln1047pvfrm-2";
}
object overhead_line {
  name "line_ln6291242-1";
  from "m1209797";
  to "m1209791";
  phases ABCN;
  length 218.5031;
  continuous_rating_A 450.00;
  continuous_rating_B 450.00;
  continuous_rating_C 450.00;
  emergency_rating_A 600.00;
  emergency_rating_B 600.00;
  emergency_rating_C 600.00;
  configuration "lcon_3ph_h-397_acsr397_acsr397_acsr2/0_acsr_ln6291242-1";
}
object overhead_line {
  name "line_ln5593228-1";
  from "m1027019";
  to "l2785522";
  phases BN;
  length 198.1320;
  continuous_rating_B 100.00;
  emergency_rating_B 175.00;
  configuration "lcon_1ph-x2_acsrx2_acsr_ln5835159-1";
}
object overhead_line {
  name "line_ln2001313-1";
  from "m2001312";
  to "m2001313";
  phases AN;
  length 158.2381;
  continuous_rating_A 100.00;
  emergency_rating_A 175.00;
  configuration "lcon_1ph-x2_acsrx2_acsr_ln2001313-1";
}
object overhead_line {
  name "line_ln6137086-2";
  from "m1047812";
  to "m4350438";
  phases BN;
  length 71.6005;
  continuous_rating_B 90.00;
  emergency_rating_B 130.00;
  configuration "lcon_1ph-x4_acsrx4_wpal_ln6137086-2";
}
object overhead_line {
  name "line_ln5742828-1";
  from "m1209817";
  to "l2801909";
  phases ABCN;
  length 82.8487;
  continuous_rating_A 450.00;
  continuous_rating_B 450.00;
  continuous_rating_C 450.00;
  emergency_rating_A 600.00;
  emergency_rating_B 600.00;
  emergency_rating_C 600.00;
  configuration "lcon_3ph_h-397_acsr397_acsr397_acsr397_acsr_ln5742828-1";
}
object overhead_line {
  name "line_ln2001215-1";
  from "m2001214";
  to "m2001215";
  phases CN;
  length 158.2381;
  continuous_rating_C 100.00;
  emergency_rating_C 175.00;
  configuration "lcon_1ph-x2_acsrx2_acsr_ln2001215-1";
}
object overhead_line {
  name "line_ln5833622-1";
  from "m1069174";
  to "l3216347";
  phases CN;
  length 241.7164;
  continuous_rating_C 90.00;
  emergency_rating_C 130.00;
  configuration "lcon_1ph-xx4_acsr4_wpal_ln5833622-1";
}
object overhead_line {
  name "line_ln5742828-2";
  from "l2801909";
  to "m1209814";
  phases ABCN;
  length 227.2727;
  continuous_rating_A 450.00;
  continuous_rating_B 450.00;
  continuous_rating_C 450.00;
  emergency_rating_A 600.00;
  emergency_rating_B 600.00;
  emergency_rating_C 600.00;
  configuration "lcon_3ph_h-397_acsr397_acsr397_acsr397_acsr_ln5742828-1";
}
object overhead_line {
  name "line_ln6106583-2";
  from "m1010017";
  to "l2858175";
  phases AN;
  length 280.2416;
  continuous_rating_A 100.00;
  emergency_rating_A 175.00;
  configuration "lcon_1ph-2_acsrxx2_acsr_ln6320335-1";
}
object overhead_line {
  name "line_ln6106583-3";
  from "l2858175";
  to "m1027110";
  phases AN;
  length 15.1668;
  continuous_rating_A 100.00;
  emergency_rating_A 175.00;
  configuration "lcon_1ph-2_acsrxx2_acsr_ln6320335-1";
}
object overhead_line {
  name "line_ln6439600-1";
  from "m1026658";
  to "l3172805";
  phases AN;
  length 350.0012;
  continuous_rating_A 100.00;
  emergency_rating_A 175.00;
  configuration "lcon_1ph-2_acsrxx2_acsr_ln6320335-1";
}
object overhead_line {
  name "line_ln6106583-4";
  from "m1027121";
  to "n1134469";
  phases AN;
  length 28.6949;
  continuous_rating_A 100.00;
  emergency_rating_A 175.00;
  configuration "lcon_1ph-2_acsrxx2_acsr_ln6320335-1";
}
object overhead_line {
  name "line_ln6106583-5";
  from "n1134469";
  to "m1010017";
  phases AN;
  length 1051.9214;
  continuous_rating_A 100.00;
  emergency_rating_A 175.00;
  configuration "lcon_1ph-2_acsrxx2_acsr_ln6320335-1";
}
object overhead_line {
  name "line_ln5951197-2";
  from "m3037537";
  to "l3231269";
  phases BN;
  length 560.000;
  continuous_rating_B 100.00;
  emergency_rating_B 175.00;
  configuration "lcon_1ph-x2_acsrx2_acsr_ln5835159-1";
}
object overhead_line {
  name "line_ln5805761-1";
  from "l3048965";
  to "m1142843";
  phases ABCN;
  length 168.4396;
  continuous_rating_A 450.00;
  continuous_rating_B 450.00;
  continuous_rating_C 450.00;
  emergency_rating_A 600.00;
  emergency_rating_B 600.00;
  emergency_rating_C 600.00;
  configuration "lcon_3ph_h-397_acsr397_acsr397_acsr2/0_acsr_ln6291242-1";
}
object overhead_line {
  name "line_ln5865230-1";
  from "m1089177";
  to "l2822863";
  phases ABCN;
  length 439.2533;
  continuous_rating_A 225.00;
  continuous_rating_B 225.00;
  continuous_rating_C 225.00;
  emergency_rating_A 300.00;
  emergency_rating_B 300.00;
  emergency_rating_C 300.00;
  configuration "lcon_3ph_h-2/0_acsr2/0_acsr2/0_acsr2_acsr_ln1047pvfrm-2";
}
object overhead_line {
  name "line_ln5563852-1";
  from "m1108529";
  to "p829796";
  phases CN;
  length 20.0056;
  continuous_rating_C 90.00;
  emergency_rating_C 130.00;
  configuration "lcon_1ph-xx4_acsr4_acsr_ln5563852-1";
}
object underground_line {
  name "line_ln8979370-1";
  from "m1069248";
  to "l2915534";
  phases A;
  length 823.2027;
  continuous_rating_A 200.00;
  emergency_rating_A 250.00;
  configuration "lcon_1p_1/0_axnj_db_ln8979370-1";
}
object underground_line {
  name "line_ln8979370-2";
  from "l2915534";
  to "193-48013";
  phases A;
  length 555.2803;
  continuous_rating_A 200.00;
  emergency_rating_A 250.00;
  configuration "lcon_1p_1/0_axnj_db_ln8979370-1";
}
object overhead_line {
  name "line_ln6047580-2";
  from "m1026681";
  to "l3048221";
  phases ABCN;
  length 211.5975;
  continuous_rating_A 450.00;
  continuous_rating_B 450.00;
  continuous_rating_C 450.00;
  emergency_rating_A 600.00;
  emergency_rating_B 600.00;
  emergency_rating_C 600.00;
  configuration "lcon_3ph_h-397_acsr397_acsr397_acsr2/0_acsr_ln6291242-1";
}
object overhead_line {
  name "line_ln5746705-1";
  from "m1142843";
  to "p829976";
  phases AN;
  length 32.4347;
  continuous_rating_A 90.00;
  emergency_rating_A 130.00;
  configuration "lcon_1ph-4_acsrxx4_acsr_ln6392977-2";
}
object overhead_line {
  name "line_ln6109190-1";
  from "l2879794";
  to "m1142811";
  phases AN;
  length 110.7480;
  continuous_rating_A 90.00;
  emergency_rating_A 130.00;
  configuration "lcon_1ph-4_acsrxx4_acsr_ln6392977-2";
}
object overhead_line {
  name "line_ln5804789-1";
  from "m1089165";
  to "l2748128";
  phases CN;
  length 141.1667;
  continuous_rating_C 90.00;
  emergency_rating_C 130.00;
  configuration "lcon_1ph-xx4_acsr4_acsr_ln5563852-1";
}
object overhead_line {
  name "line_ln6048632-1";
  from "l2936275";
  to "l3179674";
  phases BN;
  length 297.8728;
  continuous_rating_B 90.00;
  emergency_rating_B 130.00;
  configuration "lcon_1ph-x4_acsrx4_acsr_ln5833720-1";
}
object overhead_line {
  name "line_ln6900591-29";
  from "n1140528";
  to "l3649297";
  phases AN;
  length 161.6146;
  continuous_rating_A 100.00;
  emergency_rating_A 175.00;
  configuration "lcon_1ph-2_acsrxx2_acsr_ln6320335-1";
}
object overhead_line {
  name "line_ln6505949-1";
  from "l2691952";
  to "m3036170";
  phases ABCN;
  length 7.1516;
  continuous_rating_A 450.00;
  continuous_rating_B 450.00;
  continuous_rating_C 450.00;
  emergency_rating_A 600.00;
  emergency_rating_B 600.00;
  emergency_rating_C 600.00;
  configuration "lcon_3ph_h-397_acsr397_acsr397_acsr2/0_acsr_ln6291242-1";
}
object overhead_line {
  name "line_ln6290213-1";
  from "l3197638";
  to "m1026849";
  phases AN;
  length 200.8744;
  continuous_rating_A 100.00;
  emergency_rating_A 175.00;
  configuration "lcon_1ph-2_acsrxx2_acsr_ln6320335-1";
}
object overhead_line {
  name "line_ln6900591-28";
  from "p1123251";
  to "n1140528";
  phases AN;
  length 20.7333;
  continuous_rating_A 100.00;
  emergency_rating_A 175.00;
  configuration "lcon_1ph-2_acsrxx2_acsr_ln6320335-1";
}
object overhead_line {
  name "line_ln6900591-27";
  from "m3772794";
  to "l3649300";
  phases AN;
  length 200.0169;
  continuous_rating_A 100.00;
  emergency_rating_A 175.00;
  configuration "lcon_1ph-2_acsrxx2_acsr_ln6320335-1";
}
object overhead_line {
  name "line_ln6900591-26";
  from "l3649299";
  to "m3772794";
  phases AN;
  length 12.7263;
  continuous_rating_A 100.00;
  emergency_rating_A 175.00;
  configuration "lcon_1ph-2_acsrxx2_acsr_ln6320335-1";
}
object overhead_line {
  name "line_ln5565091-1";
  from "m1069481";
  to "p827507";
  phases CN;
  length 32.1703;
  continuous_rating_C 100.00;
  emergency_rating_C 175.00;
  configuration "lcon_1ph-xx2_acsr2_acsr_ln5565091-1";
}
object overhead_line {
  name "line_ln6900591-22";
  from "l3649304";
  to "l3649305";
  phases AN;
  length 220.1037;
  continuous_rating_A 100.00;
  emergency_rating_A 175.00;
  configuration "lcon_1ph-2_acsrxx2_acsr_ln6320335-1";
}
object overhead_line {
  name "line_ln6018241-1";
  from "l2936211";
  to "l2842329";
  phases CN;
  length 265.2143;
  continuous_rating_C 90.00;
  emergency_rating_C 130.00;
  configuration "lcon_1ph-xx4_wpal4_wpal_ln6018241-1";
}
object overhead_line {
  name "line_ln2000404-1";
  from "m2000403";
  to "m2000404";
  phases AN;
  length 158.2381;
  continuous_rating_A 100.00;
  emergency_rating_A 175.00;
  configuration "lcon_1ph-x2_acsrx2_acsr_ln2001313-1";
}
object overhead_line {
  name "line_ln6900591-20";
  from "l3649302";
  to "l3649304";
  phases AN;
  length 205.9075;
  continuous_rating_A 100.00;
  emergency_rating_A 175.00;
  configuration "lcon_1ph-2_acsrxx2_acsr_ln6320335-1";
}
object overhead_line {
  name "line_ln5472346-1";
  from "l3160100";
  to "l3085390";
  phases BN;
  length 219.3886;
  continuous_rating_B 100.00;
  emergency_rating_B 175.00;
  configuration "lcon_1ph-x2_acsrx2_acsr_ln5835159-1";
}
object overhead_line {
  name "line_ln5835124-1";
  from "m1069731";
  to "l2710504";
  phases BN;
  length 182.6228;
  continuous_rating_B 90.00;
  emergency_rating_B 130.00;
  configuration "lcon_1ph-x4_acsrx4_acsr_ln5833720-1";
}
object overhead_line {
  name "line_ln6411382-1";
  from "m1089143";
  to "m1089144";
  phases AN;
  length 84.3570;
  continuous_rating_A 100.00;
  emergency_rating_A 175.00;
  configuration "lcon_1ph-2_acsrxx2_acsr_ln6320335-1";
}
object overhead_line {
  name "line_ln5654485-1";
  from "l2711234";
  to "l3198355";
  phases BN;
  length 389.8882;
  continuous_rating_B 90.00;
  emergency_rating_B 130.00;
  configuration "lcon_1ph-x4_wpalx4_wpal_ln5654485-1";
}
object overhead_line {
  name "line_ln5532739-1";
  from "l3254207";
  to "m1069390";
  phases AN;
  length 232.5779;
  continuous_rating_A 90.00;
  emergency_rating_A 130.00;
  configuration "lcon_1ph-4_acsrxx4_acsr_ln6392977-2";
}
object overhead_line {
  name "line_ln5621826-1";
  from "m1026942";
  to "l3270814";
  phases AN;
  length 100.0009;
  continuous_rating_A 90.00;
  emergency_rating_A 130.00;
  configuration "lcon_1ph-4_acsrxx4_acsr_ln6392977-2";
}
object overhead_line {
  name "line_ln5562921-1";
  from "m1089155";
  to "m1089158";
  phases CN;
  length 334.0872;
  continuous_rating_C 90.00;
  emergency_rating_C 130.00;
  configuration "lcon_1ph-xx4_acsr4_wpal_ln5833622-1";
}
object overhead_line {
  name "line_ln5744361-1";
  from "l2860485";
  to "l2860506";
  phases BN;
  length 683.6319;
  continuous_rating_B 100.00;
  emergency_rating_B 175.00;
  configuration "lcon_1ph-x2_acsrx2_acsr_ln5835159-1";
}
object overhead_line {
  name "line_ln6351417-1";
  from "m1126005";
  to "l3011229";
  phases AN;
  length 264.1840;
  continuous_rating_A 100.00;
  emergency_rating_A 175.00;
  configuration "lcon_1ph-2_acsrxx2_acsr_ln6320335-1";
}
object overhead_line {
  name "line_ln6900591-14";
  from "l3649301";
  to "l3649302";
  phases AN;
  length 206.8914;
  continuous_rating_A 100.00;
  emergency_rating_A 175.00;
  configuration "lcon_1ph-2_acsrxx2_acsr_ln6320335-1";
}
object overhead_line {
  name "line_ln6900591-12";
  from "l3649300";
  to "l3649301";
  phases AN;
  length 200.7040;
  continuous_rating_A 100.00;
  emergency_rating_A 175.00;
  configuration "lcon_1ph-2_acsrxx2_acsr_ln6320335-1";
}
object overhead_line {
  name "line_ln2000600-1";
  from "m2000500";
  to "m2000600";
  phases ABCN;
  length 487.0451;
  continuous_rating_A 225.00;
  continuous_rating_B 225.00;
  continuous_rating_C 225.00;
  emergency_rating_A 300.00;
  emergency_rating_B 300.00;
  emergency_rating_C 300.00;
  configuration "lcon_3ph_h-2/0_acsr2/0_acsr2/0_acsr2_acsr_ln1047pvfrm-2";
}
object overhead_line {
  name "line_ln5987964-1";
  from "m1108278";
  to "l3179699";
  phases BN;
  length 377.7532;
  continuous_rating_B 100.00;
  emergency_rating_B 175.00;
  configuration "lcon_1ph-x2_acsrx2_acsr_ln5835159-1";
}
object overhead_line {
  name "line_ln5955074-3";
  from "p827521";
  to "n1139546";
  phases BN;
  length 29.9894;
  continuous_rating_B 90.00;
  emergency_rating_B 130.00;
  configuration "lcon_1ph-x4_acsrx4_acsr_ln5833720-1";
}
object overhead_line {
  name "line_ln5955074-2";
  from "d5955074-2_int";
  to "l2970842";
  phases BN;
  length 280.7366;
  continuous_rating_B 90.00;
  emergency_rating_B 130.00;
  configuration "lcon_1ph-x4_acsrx4_acsr_ln5833720-1";
}
object overhead_line {
  name "line_ln6170199-2";
  from "m3037449";
  to "m1108375";
  phases CN;
  length 60.2699;
  continuous_rating_C 100.00;
  emergency_rating_C 175.00;
  configuration "lcon_1ph-xx2_acsr2_acsr_ln5565091-1";
}
object overhead_line {
  name "line_ln5835146-1";
  from "l3104131";
  to "m1026377";
  phases AN;
  length 200.5200;
  continuous_rating_A 90.00;
  emergency_rating_A 130.00;
  configuration "lcon_1ph-4_wpalxx4_acsr_ln5835146-1";
}
object overhead_line {
  name "line_ln6320322-1";
  from "l2879055";
  to "l2973144";
  phases CN;
  length 298.3053;
  continuous_rating_C 90.00;
  emergency_rating_C 130.00;
  configuration "lcon_1ph-xx4_acsr4_acsr_ln5563852-1";
}
object overhead_line {
  name "line_ln6078773-1";
  from "m1142798";
  to "m1142801";
  phases BN;
  length 260.6238;
  continuous_rating_B 100.00;
  emergency_rating_B 175.00;
  configuration "lcon_1ph-x2_acsrx2_acsr_ln5835159-1";
}
object overhead_line {
  name "line_ln6380810-1";
  from "m1047732";
  to "m1047737";
  phases ABCN;
  length 284.4418;
  continuous_rating_A 90.00;
  continuous_rating_B 90.00;
  continuous_rating_C 90.00;
  emergency_rating_A 130.00;
  emergency_rating_B 130.00;
  emergency_rating_C 130.00;
  configuration "lcon_3ph_h-4_acsr4_acsr4_acsr4_acsr_ln6380810-1";
}
object overhead_line {
  name "line_ln6268990-2";
  from "m1047613";
  to "m1047612";
  phases CN;
  length 1.2596;
  continuous_rating_C 100.00;
  emergency_rating_C 175.00;
  configuration "lcon_1ph-xx2_acsr2_acsr_ln5565091-1";
}
object overhead_line {
  name "line_ln5774458-1";
  from "m1026907";
  to "m1026915";
  phases ABCN;
  length 242.8592;
...